REMARK  6 active torsions:
REMARK  status: ('A' for Active; 'I' for Inactive)
REMARK    1  A    between atoms: PB_3716  and  O3A_3723 
REMARK    2  A    between atoms: PA_3720  and  O3A_3723 
REMARK    3  A    between atoms: PA_3720  and  O5'_3724 
REMARK    4  A    between atoms: O5'_3724  and  C5'_3725 
REMARK    5  A    between atoms: C5'_3725  and  C4'_3726 
REMARK    6  A    between atoms: C1'_3732  and  N9_3733 
ROOT
HETATM    1  C4' ADP A 487       8.719   0.920 -18.996  1.00 23.05     0.181 C 
HETATM    2  O4' ADP A 487       9.413  -0.330 -18.722  1.00 23.71    -0.331 OA
HETATM    3  C3' ADP A 487       9.530   2.015 -18.352  1.00 20.93     0.216 C 
HETATM    4  O3' ADP A 487       8.933   2.271 -17.089  1.00 23.38    -0.218 OA
HETATM    5  C2' ADP A 487      10.842   1.376 -18.045  1.00 19.85     0.234 C 
HETATM    6  O2' ADP A 487      11.441   1.932 -16.898  1.00 19.56    -0.216 OA
HETATM    7  C1' ADP A 487      10.408  -0.043 -17.728  1.00 21.25     0.241 C 
ENDROOT
BRANCH   1   8
HETATM    8  C5' ADP A 487       8.541   1.110 -20.484  1.00 23.62     0.187 C 
BRANCH   8   9
HETATM    9  O5' ADP A 487       7.975  -0.141 -20.908  1.00 25.18    -0.268 OA
BRANCH   9  10
HETATM   10  PA  ADP A 487       7.513  -0.346 -22.419  1.00 26.20     0.419 P 
HETATM   11  O2A ADP A 487       8.787  -0.238 -23.191  1.00 25.16    -0.624 OA
HETATM   12  O1A ADP A 487       6.599  -1.553 -22.446  1.00 27.31    -0.624 OA
BRANCH  10  13
HETATM   13  O3A ADP A 487       6.701   0.993 -22.763  1.00 28.54    -0.173 OA
BRANCH  13  14
HETATM   14  PB  ADP A 487       5.232   1.339 -23.332  1.00 28.67     0.431 P 
HETATM   15  O1B ADP A 487       5.509   2.780 -23.681  1.00 27.64    -0.616 OA
HETATM   16  O3B ADP A 487       4.788   0.440 -24.455  1.00 31.61    -0.616 OA
HETATM   17  O2B ADP A 487       4.403   1.184 -22.091  1.00 33.03    -0.616 OA
ENDBRANCH  13  14
ENDBRANCH  10  13
ENDBRANCH   9  10
ENDBRANCH   8   9
ENDBRANCH   1   8
BRANCH   7  18
HETATM   18  N9  ADP A 487      11.612  -0.887 -17.780  1.00 18.66    -0.270 N 
HETATM   19  C8  ADP A 487      12.386  -1.118 -18.847  1.00 18.84     0.182 A 
HETATM   20  N7  ADP A 487      13.417  -1.939 -18.501  1.00 21.15    -0.219 NA
HETATM   21  C5  ADP A 487      13.289  -2.210 -17.178  1.00 19.45     0.155 A 
HETATM   22  C6  ADP A 487      13.994  -3.015 -16.166  1.00 20.68     0.206 A 
HETATM   23  C4  ADP A 487      12.109  -1.499 -16.709  1.00 17.67     0.170 A 
HETATM   24  N6  ADP A 487      15.105  -3.719 -16.476  1.00 20.83    -0.125 N 
HETATM   25  N1  ADP A 487      13.513  -3.021 -14.907  1.00 20.39    -0.202 NA
HETATM   26  C2  ADP A 487      12.405  -2.345 -14.545  1.00 19.33     0.202 A 
HETATM   27  N3  ADP A 487      11.710  -1.624 -15.417  1.00 18.14    -0.205 NA
ENDBRANCH   7  18
TORSDOF 6
