@<TRIPOS>MOLECULE
ZINC66671356
   45    47     0     0     0
SMALL
USER_CHARGES

@<TRIPOS>ATOM
      1 C1         -0.0154    1.5458   -0.0028 C.3       1 <0>        -0.1701
      2 C2         -0.0066    0.0158   -0.0114 C.3       1 <0>         0.2012
      3 C3          0.7230   -0.4969    1.2319 C.3       1 <0>        -0.1662
      4 C4         -1.4461   -0.5025   -0.0080 C.3       1 <0>        -0.0888
      5 C5         -2.1540   -0.0112    1.2283 C.ar      1 <0>        -0.0668
      6 C6         -2.2082   -0.8080    2.3566 C.ar      1 <0>        -0.1006
      7 C7         -2.8575   -0.3575    3.4906 C.ar      1 <0>        -0.1127
      8 C8         -3.4531    0.8902    3.4972 C.ar      1 <0>        -0.1076
      9 C9         -3.3997    1.6876    2.3698 C.ar      1 <0>        -0.1092
     10 C10        -2.7449    1.2395    1.2361 C.ar      1 <0>        -0.0309
     11 Cl1        -2.6716    2.2434   -0.1783 Cl        1 <0>        -0.0624
     12 N1          0.6817   -0.4618   -1.2132 N.am      1 <0>        -0.7291
     13 C11         1.9692   -0.1275   -1.4302 C.2       1 <0>         0.7119
     14 O1          2.5595    0.5705   -0.6285 O.2       1 <0>        -0.5663
     15 N2          2.6023   -0.5669   -2.5359 N.am      1 <0>        -0.6679
     16 C12         3.9000   -0.1253   -2.8217 C.ar      1 <0>         0.1505
     17 C13         4.3582    1.0892   -2.3233 C.ar      1 <0>        -0.0743
     18 C14         5.6508    1.4841   -2.6328 C.ar      1 <0>        -0.1435
     19 C15         6.4387    0.6665   -3.4204 C.ar      1 <0>         0.1048
     20 N3          5.9791   -0.4810   -3.8803 N.ar      1 <0>        -0.4727
     21 C16         4.7551   -0.8998   -3.6061 C.ar      1 <0>         0.3120
     22 N4          4.3123   -2.1272   -4.1109 N.pl3     1 <0>        -0.3296
     23 C17         4.7731   -2.7645   -5.2054 C.2       1 <0>         0.2949
     24 N5          4.1013   -3.8794   -5.3377 N.2       1 <0>        -0.5377
     25 C18         3.2088   -3.9892   -4.3540 C.2       1 <0>         0.2191
     26 N6          3.3032   -2.9437   -3.5747 N.2       1 <0>        -0.3255
     27 H1          1.0101    1.9151   -0.0052 H         1 <0>         0.0760
     28 H2         -0.5352    1.9111   -0.8885 H         1 <0>         0.0621
     29 H3         -0.5275    1.9011    0.8914 H         1 <0>         0.0674
     30 H4          0.2110   -0.1416    2.1261 H         1 <0>         0.0671
     31 H5          0.7294   -1.5869    1.2258 H         1 <0>         0.0539
     32 H6          1.7486   -0.1276    1.2295 H         1 <0>         0.0811
     33 H7         -1.9658   -0.1372   -0.8937 H         1 <0>         0.0866
     34 H8         -1.4397   -1.5925   -0.0141 H         1 <0>         0.0846
     35 H9         -1.7434   -1.7829    2.3519 H         1 <0>         0.1323
     36 H10        -2.8998   -0.9805    4.3718 H         1 <0>         0.1305
     37 H11        -3.9606    1.2415    4.3834 H         1 <0>         0.1328
     38 H12        -3.8652    2.6621    2.3750 H         1 <0>         0.1343
     39 H13         0.2108   -1.0186   -1.8528 H         1 <0>         0.3977
     40 H14         2.1591   -1.1891   -3.1337 H         1 <0>         0.4144
     41 H15         3.7222    1.7104   -1.7099 H         1 <0>         0.1699
     42 H16         6.0379    2.4218   -2.2622 H         1 <0>         0.1501
     43 H17         7.4457    0.9719   -3.6633 H         1 <0>         0.1729
     44 H18         5.5590   -2.4158   -5.8591 H         1 <0>         0.2271
     45 H19         2.5211   -4.8111   -4.2201 H         1 <0>         0.2267
@<TRIPOS>BOND
     1    1    2 1
     2    1   27 1
     3    1   28 1
     4    1   29 1
     5    2    3 1
     6    2    4 1
     7    2   12 1
     8    3   30 1
     9    3   31 1
    10    3   32 1
    11    4    5 1
    12    4   33 1
    13    4   34 1
    14    5   10 ar
    15    5    6 ar
    16    6    7 ar
    17    6   35 1
    18    7    8 ar
    19    7   36 1
    20    8    9 ar
    21    8   37 1
    22    9   10 ar
    23    9   38 1
    24   10   11 1
    25   12   13 am
    26   12   39 1
    27   13   14 2
    28   13   15 am
    29   15   16 1
    30   15   40 1
    31   16   21 ar
    32   16   17 ar
    33   17   18 ar
    34   17   41 1
    35   18   19 ar
    36   18   42 1
    37   19   20 ar
    38   19   43 1
    39   20   21 ar
    40   21   22 1
    41   22   26 1
    42   22   23 1
    43   23   24 2
    44   23   44 1
    45   24   25 1
    46   25   26 2
    47   25   45 1
